      1 'GENROU' 1     7.4000      0.30000E-01  0.85000      0.33000E-01
          5.1480       2.0000      0.89790      0.64600      0.30000
         0.64600      0.23000      0.22000      0.10000E-01   1.0000      /
      1 'ESAC1A' 1    0.10000E-02  0.20000      0.10000E-02   400.00
         0.20000E-01   10.000      -10.000      0.80000      0.30000E-01
          1.0000      0.20000      0.38000       1.0000       3.1400
         0.30000E-01   4.1800      0.10000       7.3200      -7.3200    /
      1 'GAST'   1    0.50000E-01  0.20000      0.20000       2.0000
          1.0000       2.5000       1.1000      0.10000E-01   0.0000      /
      2 'GENROU' 1     6.1000      0.40000E-01  0.30000      0.99000E-01
          6.5400       2.0000       1.0500      0.98000      0.18500
         0.36000      0.13000       0.0000      0.10000E-01   1.0000      /
      2 'ESAC1A' 1    0.10000E-02  0.20000      0.10000E-02   400.00
         0.20000E-01   10.000      -10.000      0.80000      0.30000E-01
          1.0000      0.20000      0.38000       1.0000       3.1400
         0.30000E-01   4.1800      0.10000       7.3200      -7.3200    /
      3 'GENROU' 1     6.1000      0.40000E-01  0.30000      0.99000E-01
          6.5400       2.0000       1.0500      0.98000      0.18500
         0.36000      0.13000       0.0000      0.10000      0.40000      /
      3 'ESAC1A' 1    0.10000E-02  0.20000      0.10000E-02   400.00
         0.20000E-01   10.000      -10.000      0.80000      0.30000E-01
          1.0000      0.20000      0.38000       1.0000       3.1400
         0.30000E-01   4.1800      0.10000       7.3200      -7.3200    /
      4 'GENROU' 1     4.7500      0.60000E-01   1.5000      0.19000
          5.0600       2.0000       1.2500       1.2200      0.23200
         0.71500      0.12000      0.11000      0.10000      0.40000      /
      4 'ESAC1A' 1    0.10000E-02  0.20000      0.10000E-02   400.00
         0.20000E-01   10.000      -10.000      0.80000      0.30000E-01
          1.0000      0.20000      0.38000       1.0000       3.1400
         0.30000E-01   4.1800      0.10000       7.3200      -7.3200    /
      6 'GENROU' 1     4.7500      0.60000E-01   1.5000      0.19000
          5.0600       2.0000       1.2500       1.2200      0.23200
         0.71500      0.12000      0.11000      0.10000      0.40000      /
      6 'ESAC1A' 1    0.10000E-02  0.20000      0.10000E-02   400.00
         0.20000E-01   10.000      -10.000      0.80000      0.30000E-01
          1.0000      0.20000      0.38000       1.0000       3.1400
         0.30000E-01   4.1800      0.10000       7.3200      -7.3200    /
      8 'GENROU' 1     4.7500      0.60000E-01   1.5000      0.19000
          5.0600       2.0000       1.2500       1.2200      0.23200
         0.71500      0.12000      0.11000      0.10000      0.40000      /
      8 'ESAC1A' 1    0.10000E-02  0.20000      0.10000E-02   400.00
         0.20000E-01   10.000      -10.000      0.80000      0.30000E-01
          1.0000      0.20000      0.38000       1.0000       3.1400
         0.30000E-01   4.1800      0.10000       7.3200      -7.3200    /
      10 'GENROU' 1     4.7500      0.60000E-01   1.5000      0.19000
          5.0600       2.0000       1.2500       1.2200      0.23200
         0.71500      0.12000      0.11000      0.10000      0.40000      /
      10 'ESAC1A' 1    0.10000E-02  0.20000      0.10000E-02   400.00
         0.20000E-01   10.000      -10.000      0.80000      0.30000E-01
          1.0000      0.20000      0.38000       1.0000       3.1400
         0.30000E-01   4.1800      0.10000       7.3200      -7.3200    /
      12 'GENROU' 1     4.7500      0.60000E-01   1.5000      0.19000
          5.0600       2.0000       1.2500       1.2200      0.23200
         0.71500      0.12000      0.11000      0.10000      0.40000      /
      12 'ESAC1A' 1    0.10000E-02  0.20000      0.10000E-02   400.00
         0.20000E-01   10.000      -10.000      0.80000      0.30000E-01
          1.0000      0.20000      0.38000       1.0000       3.1400
         0.30000E-01   4.1800      0.10000       7.3200      -7.3200    /
      15 'GENROU' 1     4.7500      0.60000E-01   1.5000      0.19000
          5.0600       2.0000       1.2500       1.2200      0.23200
         0.71500      0.12000      0.11000      0.10000      0.40000      /
      15 'ESAC1A' 1    0.10000E-02  0.20000      0.10000E-02   400.00
         0.20000E-01   10.000      -10.000      0.80000      0.30000E-01
          1.0000      0.20000      0.38000       1.0000       3.1400
         0.30000E-01   4.1800      0.10000       7.3200      -7.3200    /
      18 'GENROU' 1     4.7500      0.60000E-01   1.5000      0.19000
          5.0600       2.0000       1.2500       1.2200      0.23200
         0.71500      0.12000      0.11000      0.10000      0.40000      /
      18 'ESAC1A' 1    0.10000E-02  0.20000      0.10000E-02   400.00
         0.20000E-01   10.000      -10.000      0.80000      0.30000E-01
          1.0000      0.20000      0.38000       1.0000       3.1400
         0.30000E-01   4.1800      0.10000       7.3200      -7.3200    /
      19 'GENROU' 1     4.7500      0.60000E-01   1.5000      0.19000
          5.0600       2.0000       1.2500       1.2200      0.23200
         0.71500      0.12000      0.11000      0.10000      0.40000      /
      19 'ESAC1A' 1    0.10000E-02  0.20000      0.10000E-02   400.00
         0.20000E-01   10.000      -10.000      0.80000      0.30000E-01
          1.0000      0.20000      0.38000       1.0000       3.1400
         0.30000E-01   4.1800      0.10000       7.3200      -7.3200    /
      24 'GENROU' 1     4.7500      0.60000E-01   1.5000      0.19000
          5.0600       2.0000       1.2500       1.2200      0.23200
         0.71500      0.12000      0.11000      0.10000      0.40000      /
      24 'ESAC1A' 1    0.10000E-02  0.20000      0.10000E-02   400.00
         0.20000E-01   10.000      -10.000      0.80000      0.30000E-01
          1.0000      0.20000      0.38000       1.0000       3.1400
         0.30000E-01   4.1800      0.10000       7.3200      -7.3200    /
      25 'GENROU' 1     4.7500      0.60000E-01   1.5000      0.19000
          5.0600       2.0000       1.2500       1.2200      0.23200
         0.71500      0.12000      0.11000      0.10000      0.40000      /
      25 'ESAC1A' 1    0.10000E-02  0.20000      0.10000E-02   400.00
         0.20000E-01   10.000      -10.000      0.80000      0.30000E-01
          1.0000      0.20000      0.38000       1.0000       3.1400
         0.30000E-01   4.1800      0.10000       7.3200      -7.3200    /
      26 'GENROU' 1     4.7500      0.60000E-01   1.5000      0.19000
          5.0600       2.0000       1.2500       1.2200      0.23200
         0.71500      0.12000      0.11000      0.10000      0.40000      /
      26 'ESAC1A' 1    0.10000E-02  0.20000      0.10000E-02   400.00
         0.20000E-01   10.000      -10.000      0.80000      0.30000E-01
          1.0000      0.20000      0.38000       1.0000       3.1400
         0.30000E-01   4.1800      0.10000       7.3200      -7.3200    /
      27 'GENROU' 1     4.7500      0.60000E-01   1.5000      0.19000
          5.0600       2.0000       1.2500       1.2200      0.23200
         0.71500      0.12000      0.11000      0.10000      0.40000      /
      27 'ESAC1A' 1    0.10000E-02  0.20000      0.10000E-02   400.00
         0.20000E-01   10.000      -10.000      0.80000      0.30000E-01
          1.0000      0.20000      0.38000       1.0000       3.1400
         0.30000E-01   4.1800      0.10000       7.3200      -7.3200    /
      31 'GENROU' 1     4.7500      0.60000E-01   1.5000      0.19000
          5.0600       2.0000       1.2500       1.2200      0.23200
         0.71500      0.12000      0.11000      0.10000      0.40000      /
      31 'ESAC1A' 1    0.10000E-02  0.20000      0.10000E-02   400.00
         0.20000E-01   10.000      -10.000      0.80000      0.30000E-01
          1.0000      0.20000      0.38000       1.0000       3.1400
         0.30000E-01   4.1800      0.10000       7.3200      -7.3200    /
      32 'GENROU' 1     4.7500      0.60000E-01   1.5000      0.19000
          5.0600       2.0000       1.2500       1.2200      0.23200
         0.71500      0.12000      0.11000      0.10000      0.40000      /
      32 'ESAC1A' 1    0.10000E-02  0.20000      0.10000E-02   400.00
         0.20000E-01   10.000      -10.000      0.80000      0.30000E-01
          1.0000      0.20000      0.38000       1.0000       3.1400
         0.30000E-01   4.1800      0.10000       7.3200      -7.3200    /
      34 'GENROU' 1     4.7500      0.60000E-01   1.5000      0.19000
          5.0600       2.0000       1.2500       1.2200      0.23200
         0.71500      0.12000      0.11000      0.10000      0.40000      /
      34 'ESAC1A' 1    0.10000E-02  0.20000      0.10000E-02   400.00
         0.20000E-01   10.000      -10.000      0.80000      0.30000E-01
          1.0000      0.20000      0.38000       1.0000       3.1400
         0.30000E-01   4.1800      0.10000       7.3200      -7.3200    /
      36 'GENROU' 1     4.7500      0.60000E-01   1.5000      0.19000
          5.0600       2.0000       1.2500       1.2200      0.23200
         0.71500      0.12000      0.11000      0.10000      0.40000      /
      36 'ESAC1A' 1    0.10000E-02  0.20000      0.10000E-02   400.00
         0.20000E-01   10.000      -10.000      0.80000      0.30000E-01
          1.0000      0.20000      0.38000       1.0000       3.1400
         0.30000E-01   4.1800      0.10000       7.3200      -7.3200    /
      40 'GENROU' 1     4.7500      0.60000E-01   1.5000      0.19000
          5.0600       2.0000       1.2500       1.2200      0.23200
         0.71500      0.12000      0.11000      0.10000      0.40000      /
      40 'ESAC1A' 1    0.10000E-02  0.20000      0.10000E-02   400.00
         0.20000E-01   10.000      -10.000      0.80000      0.30000E-01
          1.0000      0.20000      0.38000       1.0000       3.1400
         0.30000E-01   4.1800      0.10000       7.3200      -7.3200    /
      42 'GENROU' 1     4.7500      0.60000E-01   1.5000      0.19000
          5.0600       2.0000       1.2500       1.2200      0.23200
         0.71500      0.12000      0.11000      0.10000      0.40000      /
      42 'ESAC1A' 1    0.10000E-02  0.20000      0.10000E-02   400.00
         0.20000E-01   10.000      -10.000      0.80000      0.30000E-01
          1.0000      0.20000      0.38000       1.0000       3.1400
         0.30000E-01   4.1800      0.10000       7.3200      -7.3200    /
      46 'GENROU' 1     4.7500      0.60000E-01   1.5000      0.19000
          5.0600       2.0000       1.2500       1.2200      0.23200
         0.71500      0.12000      0.11000      0.10000      0.40000      /
      46 'ESAC1A' 1    0.10000E-02  0.20000      0.10000E-02   400.00
         0.20000E-01   10.000      -10.000      0.80000      0.30000E-01
          1.0000      0.20000      0.38000       1.0000       3.1400
         0.30000E-01   4.1800      0.10000       7.3200      -7.3200    /
      49 'GENROU' 1     4.7500      0.60000E-01   1.5000      0.19000
          5.0600       2.0000       1.2500       1.2200      0.23200
         0.71500      0.12000      0.11000      0.10000      0.40000      /
      49 'ESAC1A' 1    0.10000E-02  0.20000      0.10000E-02   400.00
         0.20000E-01   10.000      -10.000      0.80000      0.30000E-01
          1.0000      0.20000      0.38000       1.0000       3.1400
         0.30000E-01   4.1800      0.10000       7.3200      -7.3200    /
      54 'GENROU' 1     4.7500      0.60000E-01   1.5000      0.19000
          5.0600       2.0000       1.2500       1.2200      0.23200
         0.71500      0.12000      0.11000      0.10000      0.40000      /
      54 'ESAC1A' 1    0.10000E-02  0.20000      0.10000E-02   400.00
         0.20000E-01   10.000      -10.000      0.80000      0.30000E-01
          1.0000      0.20000      0.38000       1.0000       3.1400
         0.30000E-01   4.1800      0.10000       7.3200      -7.3200    /
      55 'GENROU' 1     4.7500      0.60000E-01   1.5000      0.19000
          5.0600       2.0000       1.2500       1.2200      0.23200
         0.71500      0.12000      0.11000      0.10000      0.40000      /
      55 'ESAC1A' 1    0.10000E-02  0.20000      0.10000E-02   400.00
         0.20000E-01   10.000      -10.000      0.80000      0.30000E-01
          1.0000      0.20000      0.38000       1.0000       3.1400
         0.30000E-01   4.1800      0.10000       7.3200      -7.3200    /
      56 'GENROU' 1     4.7500      0.60000E-01   1.5000      0.19000
          5.0600       2.0000       1.2500       1.2200      0.23200
         0.71500      0.12000      0.11000      0.10000      0.40000      /
      56 'ESAC1A' 1    0.10000E-02  0.20000      0.10000E-02   400.00
         0.20000E-01   10.000      -10.000      0.80000      0.30000E-01
          1.0000      0.20000      0.38000       1.0000       3.1400
         0.30000E-01   4.1800      0.10000       7.3200      -7.3200    /
      59 'GENROU' 1     4.7500      0.60000E-01   1.5000      0.19000
          5.0600       2.0000       1.2500       1.2200      0.23200
         0.71500      0.12000      0.11000      0.10000      0.40000      /
      59 'ESAC1A' 1    0.10000E-02  0.20000      0.10000E-02   400.00
         0.20000E-01   10.000      -10.000      0.80000      0.30000E-01
          1.0000      0.20000      0.38000       1.0000       3.1400
         0.30000E-01   4.1800      0.10000       7.3200      -7.3200    /
      61 'GENROU' 1     4.7500      0.60000E-01   1.5000      0.19000
          5.0600       2.0000       1.2500       1.2200      0.23200
         0.71500      0.12000      0.11000      0.10000      0.40000      /
      61 'ESAC1A' 1    0.10000E-02  0.20000      0.10000E-02   400.00
         0.20000E-01   10.000      -10.000      0.80000      0.30000E-01
          1.0000      0.20000      0.38000       1.0000       3.1400
         0.30000E-01   4.1800      0.10000       7.3200      -7.3200    /
      62 'GENROU' 1     4.7500      0.60000E-01   1.5000      0.19000
          5.0600       2.0000       1.2500       1.2200      0.23200
         0.71500      0.12000      0.11000      0.10000      0.40000      /
      62 'ESAC1A' 1    0.10000E-02  0.20000      0.10000E-02   400.00
         0.20000E-01   10.000      -10.000      0.80000      0.30000E-01
          1.0000      0.20000      0.38000       1.0000       3.1400
         0.30000E-01   4.1800      0.10000       7.3200      -7.3200    /
      65 'GENROU' 1     4.7500      0.60000E-01   1.5000      0.19000
          5.0600       2.0000       1.2500       1.2200      0.23200
         0.71500      0.12000      0.11000      0.10000      0.40000      /
      65 'ESAC1A' 1    0.10000E-02  0.20000      0.10000E-02   400.00
         0.20000E-01   10.000      -10.000      0.80000      0.30000E-01
          1.0000      0.20000      0.38000       1.0000       3.1400
         0.30000E-01   4.1800      0.10000       7.3200      -7.3200    /
      66 'GENROU' 1     4.7500      0.60000E-01   1.5000      0.19000
          5.0600       2.0000       1.2500       1.2200      0.23200
         0.71500      0.12000      0.11000      0.10000      0.40000      /
      66 'ESAC1A' 1    0.10000E-02  0.20000      0.10000E-02   400.00
         0.20000E-01   10.000      -10.000      0.80000      0.30000E-01
          1.0000      0.20000      0.38000       1.0000       3.1400
         0.30000E-01   4.1800      0.10000       7.3200      -7.3200    /
      69 'GENROU' 1     4.7500      0.60000E-01   1.5000      0.19000
          5.0600       2.0000       1.2500       1.2200      0.23200
         0.71500      0.12000      0.11000      0.10000      0.40000      /
      69 'ESAC1A' 1    0.10000E-02  0.20000      0.10000E-02   400.00
         0.20000E-01   10.000      -10.000      0.80000      0.30000E-01
          1.0000      0.20000      0.38000       1.0000       3.1400
         0.30000E-01   4.1800      0.10000       7.3200      -7.3200    /
      70 'GENROU' 1     4.7500      0.60000E-01   1.5000      0.19000
          5.0600       2.0000       1.2500       1.2200      0.23200
         0.71500      0.12000      0.11000      0.10000      0.40000      /
      70 'ESAC1A' 1    0.10000E-02  0.20000      0.10000E-02   400.00
         0.20000E-01   10.000      -10.000      0.80000      0.30000E-01
          1.0000      0.20000      0.38000       1.0000       3.1400
         0.30000E-01   4.1800      0.10000       7.3200      -7.3200    /
      72 'GENROU' 1     4.7500      0.60000E-01   1.5000      0.19000
          5.0600       2.0000       1.2500       1.2200      0.23200
         0.71500      0.12000      0.11000      0.10000      0.40000      /
      72 'ESAC1A' 1    0.10000E-02  0.20000      0.10000E-02   400.00
         0.20000E-01   10.000      -10.000      0.80000      0.30000E-01
          1.0000      0.20000      0.38000       1.0000       3.1400
         0.30000E-01   4.1800      0.10000       7.3200      -7.3200    /
      73 'GENROU' 1     4.7500      0.60000E-01   1.5000      0.19000
          5.0600       2.0000       1.2500       1.2200      0.23200
         0.71500      0.12000      0.11000      0.10000      0.40000      /
      73 'ESAC1A' 1    0.10000E-02  0.20000      0.10000E-02   400.00
         0.20000E-01   10.000      -10.000      0.80000      0.30000E-01
          1.0000      0.20000      0.38000       1.0000       3.1400
         0.30000E-01   4.1800      0.10000       7.3200      -7.3200    /
      74 'GENROU' 1     4.7500      0.60000E-01   1.5000      0.19000
          5.0600       2.0000       1.2500       1.2200      0.23200
         0.71500      0.12000      0.11000      0.10000      0.40000      /
      74 'ESAC1A' 1    0.10000E-02  0.20000      0.10000E-02   400.00
         0.20000E-01   10.000      -10.000      0.80000      0.30000E-01
          1.0000      0.20000      0.38000       1.0000       3.1400
         0.30000E-01   4.1800      0.10000       7.3200      -7.3200    /
      76 'GENROU' 1     4.7500      0.60000E-01   1.5000      0.19000
          5.0600       2.0000       1.2500       1.2200      0.23200
         0.71500      0.12000      0.11000      0.10000      0.40000      /
      76 'ESAC1A' 1    0.10000E-02  0.20000      0.10000E-02   400.00
         0.20000E-01   10.000      -10.000      0.80000      0.30000E-01
          1.0000      0.20000      0.38000       1.0000       3.1400
         0.30000E-01   4.1800      0.10000       7.3200      -7.3200    /
      77 'GENROU' 1     4.7500      0.60000E-01   1.5000      0.19000
          5.0600       2.0000       1.2500       1.2200      0.23200
         0.71500      0.12000      0.11000      0.10000      0.40000      /
      77 'ESAC1A' 1    0.10000E-02  0.20000      0.10000E-02   400.00
         0.20000E-01   10.000      -10.000      0.80000      0.30000E-01
          1.0000      0.20000      0.38000       1.0000       3.1400
         0.30000E-01   4.1800      0.10000       7.3200      -7.3200    /
      80 'GENROU' 1     4.7500      0.60000E-01   1.5000      0.19000
          5.0600       2.0000       1.2500       1.2200      0.23200
         0.71500      0.12000      0.11000      0.10000      0.40000      /
      80 'ESAC1A' 1    0.10000E-02  0.20000      0.10000E-02   400.00
         0.20000E-01   10.000      -10.000      0.80000      0.30000E-01
          1.0000      0.20000      0.38000       1.0000       3.1400
         0.30000E-01   4.1800      0.10000       7.3200      -7.3200    /
      85 'GENROU' 1     4.7500      0.60000E-01   1.5000      0.19000
          5.0600       2.0000       1.2500       1.2200      0.23200
         0.71500      0.12000      0.11000      0.10000      0.40000      /
      85 'ESAC1A' 1    0.10000E-02  0.20000      0.10000E-02   400.00
         0.20000E-01   10.000      -10.000      0.80000      0.30000E-01
          1.0000      0.20000      0.38000       1.0000       3.1400
         0.30000E-01   4.1800      0.10000       7.3200      -7.3200    /
      87 'GENROU' 1     4.7500      0.60000E-01   1.5000      0.19000
          5.0600       2.0000       1.2500       1.2200      0.23200
         0.71500      0.12000      0.11000      0.10000      0.40000      /
      87 'ESAC1A' 1    0.10000E-02  0.20000      0.10000E-02   400.00
         0.20000E-01   10.000      -10.000      0.80000      0.30000E-01
          1.0000      0.20000      0.38000       1.0000       3.1400
         0.30000E-01   4.1800      0.10000       7.3200      -7.3200    /
      89 'GENROU' 1     4.7500      0.60000E-01   1.5000      0.19000
          5.0600       2.0000       1.2500       1.2200      0.23200
         0.71500      0.12000      0.11000      0.10000      0.40000      /
      89 'ESAC1A' 1    0.10000E-02  0.20000      0.10000E-02   400.00
         0.20000E-01   10.000      -10.000      0.80000      0.30000E-01
          1.0000      0.20000      0.38000       1.0000       3.1400
         0.30000E-01   4.1800      0.10000       7.3200      -7.3200    /
      90 'GENROU' 1     4.7500      0.60000E-01   1.5000      0.19000
          5.0600       2.0000       1.2500       1.2200      0.23200
         0.71500      0.12000      0.11000      0.10000      0.40000      /
      90 'ESAC1A' 1    0.10000E-02  0.20000      0.10000E-02   400.00
         0.20000E-01   10.000      -10.000      0.80000      0.30000E-01
          1.0000      0.20000      0.38000       1.0000       3.1400
         0.30000E-01   4.1800      0.10000       7.3200      -7.3200    /
      91 'GENROU' 1     4.7500      0.60000E-01   1.5000      0.19000
          5.0600       2.0000       1.2500       1.2200      0.23200
         0.71500      0.12000      0.11000      0.10000      0.40000      /
      91 'ESAC1A' 1    0.10000E-02  0.20000      0.10000E-02   400.00
         0.20000E-01   10.000      -10.000      0.80000      0.30000E-01
          1.0000      0.20000      0.38000       1.0000       3.1400
         0.30000E-01   4.1800      0.10000       7.3200      -7.3200    /
      92 'GENROU' 1     4.7500      0.60000E-01   1.5000      0.19000
          5.0600       2.0000       1.2500       1.2200      0.23200
         0.71500      0.12000      0.11000      0.10000      0.40000      /
      92 'ESAC1A' 1    0.10000E-02  0.20000      0.10000E-02   400.00
         0.20000E-01   10.000      -10.000      0.80000      0.30000E-01
          1.0000      0.20000      0.38000       1.0000       3.1400
         0.30000E-01   4.1800      0.10000       7.3200      -7.3200    /
      99 'GENROU' 1     4.7500      0.60000E-01   1.5000      0.19000
          5.0600       2.0000       1.2500       1.2200      0.23200
         0.71500      0.12000      0.11000      0.10000      0.40000      /
      99 'ESAC1A' 1    0.10000E-02  0.20000      0.10000E-02   400.00
         0.20000E-01   10.000      -10.000      0.80000      0.30000E-01
          1.0000      0.20000      0.38000       1.0000       3.1400
         0.30000E-01   4.1800      0.10000       7.3200      -7.3200    /
      100 'GENROU' 1     4.7500      0.60000E-01   1.5000      0.19000
          5.0600       2.0000       1.2500       1.2200      0.23200
         0.71500      0.12000      0.11000      0.10000      0.40000      /
      100 'ESAC1A' 1    0.10000E-02  0.20000      0.10000E-02   400.00
         0.20000E-01   10.000      -10.000      0.80000      0.30000E-01
          1.0000      0.20000      0.38000       1.0000       3.1400
         0.30000E-01   4.1800      0.10000       7.3200      -7.3200    /
      103 'GENROU' 1     4.7500      0.60000E-01   1.5000      0.19000
          5.0600       2.0000       1.2500       1.2200      0.23200
         0.71500      0.12000      0.11000      0.10000      0.40000      /
      103 'ESAC1A' 1    0.10000E-02  0.20000      0.10000E-02   400.00
         0.20000E-01   10.000      -10.000      0.80000      0.30000E-01
          1.0000      0.20000      0.38000       1.0000       3.1400
         0.30000E-01   4.1800      0.10000       7.3200      -7.3200    /
      104 'GENROU' 1     4.7500      0.60000E-01   1.5000      0.19000
          5.0600       2.0000       1.2500       1.2200      0.23200
         0.71500      0.12000      0.11000      0.10000      0.40000      /
      104 'ESAC1A' 1    0.10000E-02  0.20000      0.10000E-02   400.00
         0.20000E-01   10.000      -10.000      0.80000      0.30000E-01
          1.0000      0.20000      0.38000       1.0000       3.1400
         0.30000E-01   4.1800      0.10000       7.3200      -7.3200    /
      105 'GENROU' 1     4.7500      0.60000E-01   1.5000      0.19000
          5.0600       2.0000       1.2500       1.2200      0.23200
         0.71500      0.12000      0.11000      0.10000      0.40000      /
      105 'ESAC1A' 1    0.10000E-02  0.20000      0.10000E-02   400.00
         0.20000E-01   10.000      -10.000      0.80000      0.30000E-01
          1.0000      0.20000      0.38000       1.0000       3.1400
         0.30000E-01   4.1800      0.10000       7.3200      -7.3200    /
      107 'GENROU' 1     4.7500      0.60000E-01   1.5000      0.19000
          5.0600       2.0000       1.2500       1.2200      0.23200
         0.71500      0.12000      0.11000      0.10000      0.40000      /
      107 'ESAC1A' 1    0.10000E-02  0.20000      0.10000E-02   400.00
         0.20000E-01   10.000      -10.000      0.80000      0.30000E-01
          1.0000      0.20000      0.38000       1.0000       3.1400
         0.30000E-01   4.1800      0.10000       7.3200      -7.3200    /
      110 'GENROU' 1     4.7500      0.60000E-01   1.5000      0.19000
          5.0600       2.0000       1.2500       1.2200      0.23200
         0.71500      0.12000      0.11000      0.10000      0.40000      /
      110 'ESAC1A' 1    0.10000E-02  0.20000      0.10000E-02   400.00
         0.20000E-01   10.000      -10.000      0.80000      0.30000E-01
          1.0000      0.20000      0.38000       1.0000       3.1400
         0.30000E-01   4.1800      0.10000       7.3200      -7.3200    /
      111 'GENROU' 1     4.7500      0.60000E-01   1.5000      0.19000
          5.0600       2.0000       1.2500       1.2200      0.23200
         0.71500      0.12000      0.11000      0.10000      0.40000      /
      111 'ESAC1A' 1    0.10000E-02  0.20000      0.10000E-02   400.00
         0.20000E-01   10.000      -10.000      0.80000      0.30000E-01
          1.0000      0.20000      0.38000       1.0000       3.1400
         0.30000E-01   4.1800      0.10000       7.3200      -7.3200    /
      112 'GENROU' 1     4.7500      0.60000E-01   1.5000      0.19000
          5.0600       2.0000       1.2500       1.2200      0.23200
         0.71500      0.12000      0.11000      0.10000      0.40000      /
      112 'ESAC1A' 1    0.10000E-02  0.20000      0.10000E-02   400.00
         0.20000E-01   10.000      -10.000      0.80000      0.30000E-01
          1.0000      0.20000      0.38000       1.0000       3.1400
         0.30000E-01   4.1800      0.10000       7.3200      -7.3200    /
      113 'GENROU' 1     4.7500      0.60000E-01   1.5000      0.19000
          5.0600       2.0000       1.2500       1.2200      0.23200
         0.71500      0.12000      0.11000      0.10000      0.40000      /
      113 'ESAC1A' 1    0.10000E-02  0.20000      0.10000E-02   400.00
         0.20000E-01   10.000      -10.000      0.80000      0.30000E-01
          1.0000      0.20000      0.38000       1.0000       3.1400
         0.30000E-01   4.1800      0.10000       7.3200      -7.3200    /
      116 'GENROU' 1     4.7500      0.60000E-01   1.5000      0.19000
          5.0600       2.0000       1.2500       1.2200      0.23200
         0.71500      0.12000      0.11000      0.10000      0.40000      /
      116 'ESAC1A' 1    0.10000E-02  0.20000      0.10000E-02   400.00
         0.20000E-01   10.000      -10.000      0.80000      0.30000E-01
          1.0000      0.20000      0.38000       1.0000       3.1400
         0.30000E-01   4.1800      0.10000       7.3200      -7.3200    /

     10 'TGOV1'  1    0.04	0.4	1.05	0.0	  1.5	5.0	0.0	/
     12 'TGOV1'  1    0.04	0.4	1.05	0.0	  1.5	5.0	0.0	/
     25 'TGOV1'  1    0.04	0.4	1.05	0.0	  1.5	5.0	0.0	/
     31 'TGOV1'  1    0.04	0.4	1.05	0.0	  1.5	5.0	0.0	/
     46 'TGOV1'  1    0.04	0.4	1.05	0.0	  1.5	5.0	0.0	/
     49 'TGOV1'  1    0.04	0.4	1.05	0.0	  1.5	5.0	0.0	/
     54 'TGOV1'  1    0.04	0.4	1.05	0.0	  1.5	5.0	0.0	/
     59 'TGOV1'  1    0.04	0.4	1.05	0.0	  1.5	5.0	0.0	/
     61 'TGOV1'  1    0.04	0.4	1.05	0.0	  1.5	5.0	0.0	/
     65 'TGOV1'  1    0.04	0.4	1.05	0.0	  1.5	5.0	0.0	/
     66 'TGOV1'  1    0.04	0.4	1.05	0.0	  1.5	5.0	0.0	/
     69 'TGOV1'  1    0.04	0.4	1.05	0.0	  1.5	5.0	0.0	/
     80 'TGOV1'  1    0.04	0.4	1.05	0.0	  1.5	5.0	0.0	/
     87 'TGOV1'  1    0.04	0.4	1.05	0.0	  1.5	5.0	0.0	/
     89 'TGOV1'  1    0.04	0.4	1.05	0.0	  1.5	5.0	0.0	/
    100 'TGOV1'  1    0.04	0.4	1.05	0.0	  1.5	5.0	0.0	/
    103 'TGOV1'  1    0.04	0.4	1.05	0.0	  1.5	5.0	0.0	/
    111 'TGOV1'  1    0.04	0.4	1.05	0.0	  1.5	5.0	0.0	/
    113 'TGOV1'  1    0.04	0.4	1.05	0.0	  1.5	5.0	0.0	/
